##CIF_1.1

data_sm_global
#Used dictionaries
loop_
_audit_conform_dict_name
_audit_conform_dict_version
_audit_conform_dict_location
cif_core.dic 	2.4.2 	.
cif_pd.dic 		1.0.1 	.
cif_sm.dic 		0.1 	'redaktion.landolt-boernstein(at)springer.com'

#About this content and reference
_sm_credits_copyright
;PAULING FILE Multinaries Edition - 2012. SpringerMaterials Release 2014.
http://www.paulingfile.com
Unique LPF ID Number SD1404447
Project Coordinator: Shuichi Iwata
Section-Editors: Karin Cenzual (Crystal Structures), Hiroaki Okamoto (Phase 
Diagrams), Fritz Hulliger (Physical Properties)
(c) Springer & Material Phases Data System (MPDS), Switzerland & National 
Institute for Materials Science (NIMS), Japan 2014.
(Data generated pre-2002: (c) Springer & MPDS & NIMS; 
post-2001: (c) Springer & MPDS)
All Rights Reserved. Version 2014.06.
;

_audit_creation_method
;This data have been compiled from the crystallographic datasheet for 
"YVO4 (Y[VO4]) Crystal Structure" 
taken from SpringerMaterials (sm_isp_sd_1404447).
;

_publ_section_references
;Chakoumakos B.C., Abraham M.M., Boatner L.A.: <i>Crystal Structure Refinements of Zircon-Type MVO<sub>4</sub> (M= Sc, Y, Ce, Pr, Nd, Tb, Ho, Er, Tm, Yb, Lu)</i>. Journal of Solid State Chemistry <b>109</b> (1994) 197-202.
;

#Phase classification
_sm_phase_labels				'Y[VO4]'
_chemical_name_mineral			''
_sm_chemical_compound_class		'vanadate'
_sm_phase_prototype				'Zr[SiO4 ]'
_sm_pearson_symbol				'tI24'
_symmetry_Int_Tables_number		141
_sm_sample_details
;sample prepared from Y<sub>2</sub>O<sub>3</sub>, NH<sub>4</sub>VO<sub>3</sub>, HNO<sub>3</sub>, urea, 
powder (determination of cell and structural parameters)
;
_sm_measurement_details
;automatic diffractometer (determination of cell parameters), 
automatic diffractometer; U.S.A. Tennessee, Oak Ridge National Laboratory ORNL, HFIR, HB-4 beamline (determination of structural parameters), 
neutrons; &#x03bb; = 0.1416 nm (determination of cell and structural parameters), 
<i>T</i> = 295 K (determination of cell and structural parameters)
;
_sm_interpretation_details
;complete structure determined, 
Rietveld refinement; 110 reflections, 
<i>R</i><sub>P</sub> = 0.0382; <i>wR</i><sub>P</sub> = 0.0452
;

data_sm_isp_SD1404447-standardized_unitcell
#Cell Parameters
_cell_length_a					7.1183
_cell_length_b					7.1183
_cell_length_c					6.2893
_cell_angle_alpha				90
_cell_angle_beta				90
_cell_angle_gamma				90
_sm_length_ratio_ab				1.000
_sm_length_ratio_bc				1.132
_sm_length_ratio_ca				0.884
_cell_volume 					318.7
_symmetry_space_group_name_H-M	'I41/amd'
_symmetry_Int_Tables_number		141
_cell_formula_units_Z			4
_sm_cell_transformation
;No transformation from published to standardized cell parameters necessary.
;

#Atom Coordinates
loop_
_atom_site_label
_atom_site_type_symbol
_atom_site_Wyckoff_symbol
_sm_site_symmetry
_atom_site_fract_x
_atom_site_fract_y
_atom_site_fract_z
_atom_site_occupancy
_sm_coordination_number
_sm_atomic_environment_type
O 'O' .16h ..m. 0 0.0658 0.2008 1 1 'single atom, V'
V 'V' .4b .-4m2 0 0.25 0.375 1 4 'tetrahedron, O<sub>4</sub>'
Y 'Y' .4a .-4m2 0 0.75 0.125 1 8 'distorted square anti-prism-a, O<sub>8</sub>'

_sm_atom_site_transformation
;No transformation from published to standardized cell parameters necessary.
;

#Isotropic Displacement Parameters
loop_
_atom_site_label_1
_atom_site_U_iso_or_equiv
_sm_atom_site_isotropic_displacement_parameter_type
_atom_site_B_equiv_geom_mean
Y 4e-06 'Ueq' 0.0119
V 5e-06 'Ueq' ?
O 7.3e-06 'Ueq' 0.00576

#Anisotropic Displacement Parameters
loop_
_atom_site_aniso_label
_atom_site_aniso_U_11
_atom_site_aniso_U_12
_atom_site_aniso_U_13
_atom_site_aniso_U_22
_atom_site_aniso_U_23
_atom_site_aniso_U_33
Y 0.0041(3) 0 0 0.0041(3) 0 0.037(4)
O 0.0131(3) 0 0 0.0041(3) 0.0014(3) 0.0047(3)

data_sm_isp_SD1404447-published_cell
#Cell Parameters
_cell_length_a					7.1183(1)
_cell_length_b					7.1183(1)
_cell_length_c					6.2893(1)
_cell_angle_alpha				90
_cell_angle_beta				90
_cell_angle_gamma				90
_sm_length_ratio_ab				1.000
_sm_length_ratio_bc				1.132
_sm_length_ratio_ca				0.884
_cell_volume 					318.68
_symmetry_space_group_name_H-M	'I41/amd'
_symmetry_Int_Tables_number		141
_cell_formula_units_Z			4

#Atom Coordinates
loop_
_atom_site_label
_atom_site_type_symbol
_atom_site_Wyckoff_symbol
_sm_site_symmetry
_atom_site_fract_x
_atom_site_fract_y
_atom_site_fract_z
_atom_site_occupancy
_sm_coordination_number
_sm_atomic_environment_type
Y 'Y' .4a .-4m2 0 0.75 0.125 1 ? '?'
V 'V' .4b .-4m2 0 0.25 0.375 1 ? '?'
O 'O' .16h ..m. 0 0.4342(1) 0.2008(1) 1 ? '?'

#Isotropic Displacement Parameters
loop_
_atom_site_label_1
_atom_site_U_iso_or_equiv
_sm_atom_site_isotropic_displacement_parameter_type
_atom_site_B_equiv_geom_mean
Y 4e-06 'Ueq' 0.0119
V 5e-06 'Ueq' ?
O 7.3e-06 'Ueq' 0.00576

#Anisotropic Displacement Parameters
loop_
_atom_site_aniso_label
_atom_site_aniso_U_11
_atom_site_aniso_U_12
_atom_site_aniso_U_13
_atom_site_aniso_U_22
_atom_site_aniso_U_23
_atom_site_aniso_U_33
Y 0.0041(3) 0 0 0.0041(3) 0 0.037(4)
O 0.0131(3) 0 0 0.0041(3) 0.0014(3) 0.0047(3)

data_sm_isp_SD1404447-niggli_reduced_cell
#Cell Parameters
_cell_length_a					5.935
_cell_length_b					5.935
_cell_length_c					5.935
_cell_angle_alpha				106.304
_cell_angle_beta				106.304
_cell_angle_gamma				116.009
_sm_length_ratio_ab				1.000
_sm_length_ratio_bc				1.000
_sm_length_ratio_ca				1.000
_cell_volume 					159.34
_symmetry_space_group_name_H-M	''
_symmetry_Int_Tables_number		?
_cell_formula_units_Z			4

#Atom Coordinates
loop_
_atom_site_label
_atom_site_type_symbol
_atom_site_Wyckoff_symbol
_sm_site_symmetry
_atom_site_fract_x
_atom_site_fract_y
_atom_site_fract_z
_atom_site_occupancy
_sm_coordination_number
_sm_atomic_environment_type
? ? ? ? ? ? ? ? ? ?

